ipss.test.plugin.core/testData/adpter/psse/v33/aeso/2013_FLL.raw
0,   100.00, 33, 0, 1, 60.00     / PSS(R)E-33.4    THU, JUN 27 2013   0:32
TASMO MODEL; OUTPUT GENERATED 2012-09-18 09:46:16
SWINGBUS 1520 FOR 2012LPBL-1:2013-09-01:1:203--1-0-0-0
     1,'JUDY515S    ',  69.0000,1,  26,  99,  17,1.05476,  -5.9288,1.10000,0.90000,1.10000,0.90000
     2,'MAYERTH     ', 138.0000,1,  40,  99,  17,1.02871,  -2.3069,1.10000,0.90000,1.10000,0.90000
     3,'COLINTO7    ', 138.0000,1,  27,  99,  17,1.02510,  -3.4301,1.10000,0.90000,1.10000,0.90000
     4,'WESTLOC7    ', 138.0000,1,  27,  99,  17,1.02837,  -1.2843,1.10000,0.90000,1.10000,0.90000
     5,'CLYDE  7    ', 138.0000,1,  27,  99,  17,1.02620,  -1.5368,1.10000,0.90000,1.10000,0.90000
     6,'DICKSOA9    ',   4.1600,1,  39,  99,   7,1.03718,  -6.1336,1.10000,0.90000,1.10000,0.90000
     7,'BOYLE  7    ', 138.0000,1,  27,  99,  17,1.02840,  -4.1498,1.10000,0.90000,1.10000,0.90000
     8,'WHI 3647    ', 138.0000,1,  26,  99,  17,1.03634,  -3.5846,1.10000,0.90000,1.10000,0.90000
     9,'WHITECO7    ', 138.0000,1,  26,  99,  17,1.03606,  -3.9557,1.10000,0.90000,1.10000,0.90000
    10,'WHITECO8    ',  69.0000,1,  26,  99,  17,1.05613,  -3.3997,1.10000,0.90000,1.10000,0.90000
    12,'FOX CREE    ', 138.0000,1,  24,  99,  17,1.03310,  -5.6107,1.10000,0.90000,1.10000,0.90000
    13,'KAYBOB 7    ', 138.0000,1,  24,  99,  17,1.01732,  -4.7530,1.10000,0.90000,1.10000,0.90000
    14,'WESGEN 9    ',  13.8000,2,  27,  99,   4,1.02500,   2.3477,1.10000,0.90000,1.10000,0.90000
    15,'MTN COA7    ', 138.0000,1,  29,  99,  17,1.00862,  -1.5932,1.10000,0.90000,1.10000,0.90000
    16,'FLATBUS7    ', 138.0000,1,  27,  99,  17,1.03176,  -0.6927,1.10000,0.90000,1.10000,0.90000
    17,'COLD CR7    ', 138.0000,1,  29,  99,  17,1.00508,  -1.8289,1.10000,0.90000,1.10000,0.90000
    18,'GULF RO7    ', 138.0000,1,  29,  99,  17,1.01498,  -1.3912,1.10000,0.90000,1.10000,0.90000
    19,'WESGEN T    ', 138.0000,1,  27,  99,  17,1.03312,  -0.5934,1.10000,0.90000,1.10000,0.90000
    20,'EDSON  7    ', 138.0000,1,  29,  99,  17,1.02536,  -1.0112,1.10000,0.90000,1.10000,0.90000
    21,'WESGEN 7    ', 138.0000,1,  27,  99,   4,1.03442,  -0.2368,1.10000,0.90000,1.10000,0.90000
    26,'ENTWIST7    ', 138.0000,1,  40,  99,  17,1.02134,  -0.5844,1.10000,0.90000,1.10000,0.90000
    27,'WABAMUN8    ',  69.0000,1,  40,  99,  17,1.03212,   1.9799,1.10000,0.90000,1.10000,0.90000
    31,'FINCAST7    ', 138.0000,1,  52,  99,  17,1.00770,  -6.0781,1.10000,0.90000,1.10000,0.90000
    32,'ONOWAY 8    ',  69.0000,1,  40,  99,  17,1.03270,   1.9509,1.10000,0.90000,1.10000,0.90000
    33,'BRAZEAA9    ',  13.2000,2,  30,  99,  17,1.02893,  -3.3065,1.10000,0.90000,1.10000,0.90000
    35,'LODGEPO7    ', 138.0000,1,  30,  99,  17,1.01398,  -2.3700,1.10000,0.90000,1.10000,0.90000
    36,'BRAZEAU7    ', 138.0000,1,  30,  99,  17,1.03321,  -2.6999,1.10000,0.90000,1.10000,0.90000
    37,'HRT EXP7    ', 138.0000,1,  32,  99,  25,1.03514,   1.7393,1.10000,0.90000,1.10000,0.90000
    38,'BRAZ OUT    ', 138.0000,1,  30,  99,  17,1.02914,  -3.2863,1.10000,0.90000,1.10000,0.90000
    39,'CYNTHIA7    ', 138.0000,1,  30,  99,  17,1.01570,  -3.5094,1.10000,0.90000,1.10000,0.90000
    40,'N CALDE7    ', 138.0000,1,  60,  99,  17,1.02693,   0.3114,1.10000,0.90000,1.10000,0.90000
    41,'N BARRH7    ', 138.0000,1,  40,  99,  17,1.03407,  -0.9417,1.10000,0.90000,1.10000,0.90000
    42,'AMOCO BR    ', 138.0000,1,  30,  99,  17,1.02346,  -4.2992,1.10000,0.90000,1.10000,0.90000
    43,'SCOTF_4     ', 138.0000,2,  33,  99,  29,1.03000,   0.2458,1.10000,0.90000,1.10000,0.90000
    44,'FT ASBN7    ', 138.0000,1,  40,  99,  17,1.04415,  -2.9191,1.10000,0.90000,1.10000,0.90000
    47,'SHERWOO7    ', 138.0000,1,  60,  99,  17,1.02081,   0.5022,1.10000,0.90000,1.10000,0.90000
    48,'DIAM SH7    ', 138.0000,1,  33,  99,  17,1.03069,   0.3375,1.10000,0.90000,1.10000,0.90000
    49,'KEYSTON7    ', 138.0000,1,  30,  99,  17,1.01474,   3.6806,1.10000,0.90000,1.10000,0.90000
    50,'RIVERSID    ', 138.0000,2,  33,  99, 211,1.02874,   0.2200,1.10000,0.90000,1.10000,0.90000
    51,'W PEMBI7    ', 138.0000,1,  30,  99,  17,1.01880,  -4.2816,1.10000,0.90000,1.10000,0.90000
    52,'BLUERIDG    ', 138.0000,1,  26,  99,  17,1.03142,  -3.5927,1.10000,0.90000,1.10000,0.90000
    53,'SANDYPT7    ', 138.0000,1,  48,  99,  17,1.02110,  -2.7787,1.10000,0.90000,1.10000,0.90000
    55,'GULF OI7    ', 138.0000,1,  60,  99,  17,1.02310,   0.7879,1.10000,0.90000,1.10000,0.90000
    56,'IPPL ED7    ', 138.0000,1,  60,  99,  17,1.02402,   0.8255,1.10000,0.90000,1.10000,0.90000
    57,'LAMOURE4    ', 240.0000,1,  33,  99,  17,1.02713,   1.6728,1.10000,0.90000,1.10000,0.90000
    58,'FORT SA7    ', 138.0000,1,  60,  99,  17,1.02840,   0.4423,1.10000,0.90000,1.10000,0.90000
    59,'REDWATE7    ', 138.0000,1,  33,  99,  17,1.01727,  -0.2131,1.10000,0.90000,1.10000,0.90000
    60,'BEAMER 7    ', 138.0000,1,  33,  99,  17,1.02517,   0.0610,1.10000,0.90000,1.10000,0.90000
    61,'UN CARB9    ', 138.0000,2,  33,  99, 191,1.03000,   0.5639,1.10000,0.90000,1.10000,0.90000
    62,'SHERRIT7    ', 138.0000,1,  33,  99,  17,1.02927,   0.4638,1.10000,0.90000,1.10000,0.90000
    63,'LAMOURE7    ', 138.0000,1,  33,  99,  17,1.03254,   0.6138,1.10000,0.90000,1.10000,0.90000
    64,'BANFF  7    ', 138.0000,1,  44,  99,  17,1.01926, -11.3833,1.10000,0.90000,1.10000,0.90000
    65,'BARDO  7    ', 138.0000,1,  31,  99,  17,1.01748,  -0.8051,1.10000,0.90000,1.10000,0.90000
    66,'IOL 737L    ', 138.0000,1,  60,  99,  17,1.02254,   0.7556,1.10000,0.90000,1.10000,0.90000
    67,'BRUDERH7    ', 138.0000,1,  33,  99,  17,1.03009,   0.0835,1.10000,0.90000,1.10000,0.90000
    68,'N HOLDE7    ', 138.0000,1,  56,  99,  17,1.02859,  -0.5045,1.10000,0.90000,1.10000,0.90000
    69,'IOL 738L    ', 138.0000,1,  60,  99,  17,1.01761,   0.4494,1.10000,0.90000,1.10000,0.90000
    70,'CAMROSE7    ', 138.0000,1,  31,  99,  17,1.00899,  -1.4364,1.10000,0.90000,1.10000,0.90000
    71,'JARROW 8    ',  69.0000,1,  32,  99,  17,1.05503,   0.8124,1.10000,0.90000,1.10000,0.90000
    72,'JARROW 7    ', 138.0000,1,  32,  99,  17,1.03684,   0.8336,1.10000,0.90000,1.10000,0.90000
    73,'HARDIST7    ', 138.0000,1,  32,  99,  17,1.03541,   1.7843,1.10000,0.90000,1.10000,0.90000
    74,'METIS647    ', 138.0000,1,  37,  99,  17,1.03625,   0.1547,1.10000,0.90000,1.10000,0.90000
    75,'HUGHEND7    ', 138.0000,1,  37,  99,  17,1.03081,   0.7106,1.10000,0.90000,1.10000,0.90000
    76,'IPPL ST7    ', 138.0000,1,  56,  99,  17,1.04673,   2.7048,1.10000,0.90000,1.10000,0.90000
    77,'WAINWRI8    ',  69.0000,1,  32,  99,  17,1.05634,   0.7018,1.10000,0.90000,1.10000,0.90000
    78,'SEDGEWI7    ', 138.0000,1,  32,  99,  17,1.04182,   3.5033,1.10000,0.90000,1.10000,0.90000
    79,'BUFFALO7    ', 138.0000,1,  32,  99,  17,1.03571,  -1.9724,1.10000,0.90000,1.10000,0.90000
    80,'BUCKLAK7    ', 138.0000,1,  30,  99,  17,1.00745,  -0.2181,1.10000,0.90000,1.10000,0.90000
    81,'BIGSTON4    ', 240.0000,1,  31,  99,  17,1.02548,   2.4334,1.10000,0.90000,1.10000,0.90000
    82,'CHEVRON7    ', 138.0000,1,  24,  99,  17,1.01705,  -4.7627,1.10000,0.90000,1.10000,0.90000
    83,'RBCUPIL7    ', 138.0000,1,  17,  99,  21,1.08533,  -5.8353,1.10000,0.90000,1.10000,0.90000
    85,'MILLAR 7    ', 138.0000,1,  26,  99,  17,1.01624,  -4.2248,1.10000,0.90000,1.10000,0.90000
    86,'PROVOST7    ', 138.0000,1,  37,  99,  17,1.02703,  -0.2180,1.10000,0.90000,1.10000,0.90000
    87,'METIS644    ', 240.0000,1,  37,  99,  17,1.06001,   1.6873,1.10000,0.90000,1.10000,0.90000
    88,'BICKERD7    ', 138.0000,1,  29,  99,  17,1.02591,  -0.4073,1.10000,0.90000,1.10000,0.90000
    89,'E EDMON7    ', 138.0000,1,  60,  99,  17,1.02479,   0.8660,1.10000,0.90000,1.10000,0.90000
    90,'BICKERD4    ', 240.0000,1,  29,  99,  17,1.08634,   1.4784,1.10000,0.90000,1.10000,0.90000
    91,'NISKU  7    ', 138.0000,1,  60,  99,  17,1.01335,  -1.4626,1.10000,0.90000,1.10000,0.90000
    93,'WETASKI7    ', 138.0000,1,  31,  99,  17,1.02084,  -1.1909,1.10000,0.90000,1.10000,0.90000
    94,'ERVICK 7    ', 138.0000,1,  31,  99,  17,1.01017,  -1.4715,1.10000,0.90000,1.10000,0.90000
    95,'PONOKA 7    ', 138.0000,1,  31,  99,  17,1.00743,  -2.9284,1.10000,0.90000,1.10000,0.90000
    96,'DEVON  7    ', 138.0000,1,  60,  99,  17,1.00703,  -1.6805,1.10000,0.90000,1.10000,0.90000
    97,'ECKVILL7    ', 138.0000,1,  35,  99,  17,1.02270,  -2.5722,1.10000,0.90000,1.10000,0.90000
    98,'RIMBEY 7    ', 138.0000,1,  35,  99,  17,1.01408,  -2.9978,1.10000,0.90000,1.10000,0.90000
    99,'BENALTO7    ', 138.0000,1,  35,  99,  17,1.02951,  -2.2453,1.10000,0.90000,1.10000,0.90000
   100,'ROCKY M7    ', 138.0000,1,  38,  99,  17,1.00531,  -4.3571,1.10000,0.90000,1.10000,0.90000
   101,'COOKING7    ', 138.0000,1,  60,  99,  17,1.01629,  -0.3069,1.10000,0.90000,1.10000,0.90000
   102,'BIGHORN1    ',  13.8000,2,  34,  99,  17,0.98487,  -1.9462,1.10000,0.90000,1.10000,0.90000
   103,'BIG HOR7    ', 138.0000,1,  34,  99,  17,1.00456,  -1.9462,1.10000,0.90000,1.10000,0.90000
   104,'STRACHA7    ', 138.0000,1,  38,  99,  17,1.00496,  -5.0687,1.10000,0.90000,1.10000,0.90000
   105,'PIGEON 7    ', 138.0000,1,  31,  99,  17,1.01408,  -1.3114,1.10000,0.90000,1.10000,0.90000
   106,'DEERLAN7    ', 138.0000,1,  33,  99,  17,1.02330,   0.2657,1.10000,0.90000,1.10000,0.90000
   107,'SUNDRE 7    ', 138.0000,1,  38,  99,  17,0.97868,  -7.0316,1.10000,0.90000,1.10000,0.90000
   108,'BIGHORN2    ',  13.8000,2,  34,  99,  17,0.97200,   2.4739,1.10000,0.90000,1.10000,0.90000
   109,'DEERLAN4    ', 240.0000,1,  33,  99,  17,1.04741,   0.9143,1.10000,0.90000,1.10000,0.90000
   110,'IPL EDM7    ', 138.0000,1,  60,  99,  17,1.02402,   0.8250,1.10000,0.90000,1.10000,0.90000
   111,'SANDHIL7    ', 138.0000,1,  48,  99,  17,1.02112,  -2.7917,1.10000,0.90000,1.10000,0.90000
   112,'SUNKEN7     ', 138.0000,1,  37,  99,  17,1.03613,   0.1573,1.10000,0.90000,1.10000,0.90000
   113,'BLACKFA7    ', 138.0000,1,  35,  99,  17,1.01130,  -3.5718,1.10000,0.90000,1.10000,0.90000
   114,'LACOMBE7    ', 138.0000,1,  35,  99,  17,1.00674,  -3.5191,1.10000,0.90000,1.10000,0.90000
   115,'S RED DE    ', 138.0000,1,  35,  99,  17,1.01673,  -3.3591,1.10000,0.90000,1.10000,0.90000
   116,'W LACOMB    ', 138.0000,1,  35,  99,  17,1.00875,  -3.4411,1.10000,0.90000,1.10000,0.90000
   117,'RED DE A    ', 138.0000,1,  35,  99,  17,1.01683,  -3.1915,1.10000,0.90000,1.10000,0.90000
   118,'RED DE B    ', 138.0000,1,  35,  99,  17,1.01683,  -3.1915,1.10000,0.90000,1.10000,0.90000
   119,'N RED D7    ', 138.0000,1,  35,  99,  17,1.01893,  -3.4562,1.10000,0.90000,1.10000,0.90000
   120,'INNISFA7    ', 138.0000,1,  39,  99,  17,1.00258,  -5.0458,1.10000,0.90000,1.10000,0.90000
   121,'OLDS   7    ', 138.0000,1,  39,  99,  17,0.98909,  -7.1240,1.10000,0.90000,1.10000,0.90000
   122,'MADDEN 7    ', 138.0000,1,  39,  99,  17,0.98916,  -8.9282,1.10000,0.90000,1.10000,0.90000
   123,'DIDSBURY    ', 138.0000,1,  39,  99,  17,0.98974,  -7.8659,1.10000,0.90000,1.10000,0.90000
   124,'HARMATT7    ', 138.0000,1,  39,  99,  17,0.98845,  -7.7968,1.10000,0.90000,1.10000,0.90000
   125,'YASAA7      ', 138.0000,1,  60,  99,  17,1.02355,   0.8101,1.10000,0.90000,1.10000,0.90000
   126,'SHELL H7    ', 138.0000,1,  39,  99,  17,0.98841,  -7.8748,1.10000,0.90000,1.10000,0.90000
   127,'BEDDING2    ', 138.0000,1,   6,  99,   3,1.03172,  -8.4368,1.10000,0.90000,1.10000,0.90000
   128,'ELLERSLI    ', 240.0000,1,  60,  99,  17,1.03295,   5.9458,1.10000,0.90000,1.10000,0.90000
   129,'SUND#1GN    ',  18.0000,2,  40,  99,  17,1.04177,  10.6835,1.10000,0.90000,1.10000,0.90000
   130,'SUND#3GN    ',  20.0000,2,  40,  99,  17,1.03000,  12.1617,1.10000,0.90000,1.10000,0.90000
   131,'SUNDANA8    ',  69.0000,1,  40,  99,  17,1.02315,   3.4886,1.10000,0.90000,1.10000,0.90000
   132,'SUNDANC7    ', 138.0000,1,  40,  99,  17,1.02963,   5.7909,1.10000,0.90000,1.10000,0.90000
   133,'WABAMUN4    ', 240.0000,1,  40,  99,  17,1.06878,   4.1634,1.10000,0.90000,1.10000,0.90000
   134,'WABAMUN7    ', 138.0000,1,  40,  99,  17,1.03380,   1.7017,1.10000,0.90000,1.10000,0.90000
   135,'SUNDANC4    ', 240.0000,1,  40,  99,  17,1.08259,   5.3118,1.10000,0.90000,1.10000,0.90000
   136,'E EDMON4    ', 240.0000,1,  60,  99,  17,1.02552,   4.7529,1.10000,0.90000,1.10000,0.90000
   137,'N CALDE4    ', 240.0000,1,  60,  99,  17,1.03275,   2.7219,1.10000,0.90000,1.10000,0.90000
   138,'N BARRH4    ', 240.0000,1,  40,  99,  17,1.09974,   0.6699,1.10000,0.90000,1.10000,0.90000
   141,'DALEHUR7    ', 138.0000,1,  29,  99,  17,1.00930,  -1.5488,1.10000,0.90000,1.10000,0.90000
   142,'KINGMAN7    ', 138.0000,1,  31,  99,  17,1.01356,  -1.0828,1.10000,0.90000,1.10000,0.90000
   144,'ALGAR  7    ', 138.0000,1,  61,  99,   1,1.06511,  -0.7986,1.10000,0.90000,1.10000,0.90000
   147,'GAETZ  4    ', 240.0000,1,  35,  99,  17,1.03394,  -1.2513,1.10000,0.90000,1.10000,0.90000
   148,'GAETZ  7    ', 138.0000,1,  35,  99,  17,1.02334,  -3.3411,1.10000,0.90000,1.10000,0.90000
   150,'WILLESD4    ', 240.0000,1,  30,  99,  17,1.04801,  -1.0319,1.10000,0.90000,1.10000,0.90000
   151,'BRAZ#1 9    ',  13.8000,2,  30,  99,  17,0.98000,  -0.9329,1.10000,0.90000,1.10000,0.90000
   152,'RED DEE4    ', 240.0000,1,  35,  99,  17,1.04409,  -1.2917,1.10000,0.90000,1.10000,0.90000
   153,'BRAZEAU4    ', 240.0000,1,  30,  99,  17,1.04181,  -1.3945,1.10000,0.90000,1.10000,0.90000
   154,'BRAZ#2 9    ',  13.8000,2,  30,  99,  17,0.97221,  -1.3945,1.10000,0.90000,1.10000,0.90000
   155,'BENALTO4    ', 240.0000,1,  35,  99,  17,1.05681,  -0.0785,1.10000,0.90000,1.10000,0.90000
   156,'E CROSS4    ', 240.0000,1,  57,  99,  17,1.04033,  -4.8788,1.10000,0.90000,1.10000,0.90000
   157,'COCHIN 8    ',  69.0000,1,  32,  99, 241,1.05628,   0.6992,1.10000,0.90000,1.10000,0.90000
   158,'LANGDON2    ', 500.0000,1,   6,  99,  17,1.06331,  -4.7074,1.10000,0.90000,1.10000,0.90000
   159,'LANGDON4    ', 240.0000,1,   6,  99,  17,1.05400,  -5.2923,1.10000,0.90000,1.10000,0.90000
   160,'JANET  4    ', 240.0000,1,   6,  99,  17,1.04060,  -6.1424,1.10000,0.90000,1.10000,0.90000
   161,'SARCEE 4    ', 240.0000,1,   6,  99,  17,1.03531,  -6.9364,1.10000,0.90000,1.10000,0.90000
   162,'E CALGAR    ', 240.0000,1,   6,  99,  17,1.02698,  -6.7898,1.10000,0.90000,1.10000,0.90000
   163,'SAGITAW4    ', 240.0000,1,  26,  99,  17,1.05990,  -1.8471,1.10000,0.90000,1.10000,0.90000
   164,'SAGITAW7    ', 138.0000,1,  26,  99,  17,1.03790,  -3.2385,1.10000,0.90000,1.10000,0.90000
   165,'PEIGAN 4    ', 240.0000,1,  53,  99, 191,1.05535,  -2.3870,1.10000,0.90000,1.10000,0.90000
   166,'PEIGAN 7    ', 138.0000,1,  53,  99, 191,1.01916,   0.0035,1.10000,0.90000,1.10000,0.90000
   167,'N LETHB4    ', 240.0000,1,  54,  99,  17,1.05892,  -3.2108,1.10000,0.90000,1.10000,0.90000
   168,'SUNSHIN8    ',  69.0000,1,  44,  99,  17,0.98268, -16.5961,1.10000,0.90000,1.10000,0.90000
   169,'CAN CEM7    ', 138.0000,1,  44,  99,  17,1.01920, -10.8668,1.10000,0.90000,1.10000,0.90000
   170,'COCHRAN7    ', 138.0000,1,  44,  99,  17,1.00103, -10.6637,1.10000,0.90000,1.10000,0.90000
   171,'SEEBE  7    ', 138.0000,1,  44,  99, 191,1.01957, -10.4391,1.10000,0.90000,1.10000,0.90000
   172,'HORS GEN    ',  12.0000,2,  44,  99,  17,1.02500,  -8.4254,1.10000,0.90000,1.10000,0.90000
   173,'BRETV A7    ', 138.0000,1,  60,  99,  17,1.02309,   0.7888,1.10000,0.90000,1.10000,0.90000
   174,'SPRAY G1    ',  13.2000,2,  44,  99,  17,1.04663,  -7.9419,1.10000,0.90000,1.10000,0.90000
   175,'CASCADE7    ', 138.0000,1,  44,  99, 194,1.02143, -11.2714,1.10000,0.90000,1.10000,0.90000
   176,'CASCADE9    ',  13.2000,2,  44,  99, 194,1.03647, -11.0403,1.10000,0.90000,1.10000,0.90000
   177,'AIRDRIE     ', 138.0000,1,  57,  99,  17,1.01234,  -7.9580,1.10000,0.90000,1.10000,0.90000
   178,'BANFF  8    ',  69.0000,1,  44,  99,  17,0.98638, -16.3943,1.10000,0.90000,1.10000,0.90000
   179,'MARIANA7    ', 138.0000,1,  61,  99,   1,1.06647,  -0.7688,1.10000,0.90000,1.10000,0.90000
   180,'GHOST  7    ', 138.0000,1,  44,  99,  17,1.00758, -10.3504,1.10000,0.90000,1.10000,0.90000
   181,'GHOST A9    ',  13.2000,2,  44,  99,  17,1.00000,  -9.4874,1.10000,0.90000,1.10000,0.90000
   183,'BEARSPWB    ',  13.2000,2,  44,  99,  17,1.04333,  -9.6711,1.10000,0.90000,1.10000,0.90000
   184,'BEARSPAW    ', 138.0000,1,  44,  99,  17,1.00796, -10.1229,1.10000,0.90000,1.10000,0.90000
   187,'BEDDING1    ', 240.0000,1,   6,  99,   3,1.03533,  -6.5265,1.10000,0.90000,1.10000,0.90000
   188,'ANG COCA    ',  25.0000,1,  44,  99,  17,1.03897, -12.1536,1.10000,0.90000,1.10000,0.90000
   189,'ANG COCB    ',  13.8000,2,  44,  99,  17,0.99261, -14.3303,1.10000,0.90000,1.10000,0.90000
   190,'SPRAY G2    ',  13.2000,2,  44,  99,  17,1.02596, -10.6992,1.10000,0.90000,1.10000,0.90000
   191,'ANG COCH    ', 138.0000,1,  44,  99,  17,0.99907, -10.8831,1.10000,0.90000,1.10000,0.90000
   192,'NELSON L    ', 138.0000,1,  31,  99,  17,1.00410,  -3.0859,1.10000,0.90000,1.10000,0.90000
   193,'KANANAS7    ', 138.0000,1,  44,  99,  17,1.02006, -10.4089,1.10000,0.90000,1.10000,0.90000
   194,'LAKE LO8    ',  69.0000,1,  44,  99,  17,0.95444, -17.1367,1.10000,0.90000,1.10000,0.90000
   195,'RUNDLE S    ', 138.0000,1,  44,  99,  17,1.02548, -10.7966,1.10000,0.90000,1.10000,0.90000
   196,'KANANAS9    ',  12.0000,2,  44,  99,  17,1.03398,  -8.5102,1.10000,0.90000,1.10000,0.90000
   197,'RUNDLE G    ',  13.8000,2,  44,  99,  17,1.04761,  -9.6171,1.10000,0.90000,1.10000,0.90000
   198,'BALZAC 7    ', 138.0000,1,   6,  99,  17,1.03132,  -8.4269,1.10000,0.90000,1.10000,0.90000
   199,'SHELL J7    ', 138.0000,1,  44,  99,  17,1.00534, -10.3503,1.10000,0.90000,1.10000,0.90000
   201,'JUMPPND7    ', 138.0000,1,  44,  99,  17,1.01343, -10.2721,1.10000,0.90000,1.10000,0.90000
   202,'SARCEE 7    ', 138.0000,1,   6,  99,  17,1.01185,  -9.3636,1.10000,0.90000,1.10000,0.90000
   203,'SARCEE C    ',  13.8000,1,   6,  99,  17,1.05112,  -9.4388,1.10000,0.90000,1.10000,0.90000
   204,'MCMILLA4    ', 240.0000,1,  61,  99,   1,1.11764,   0.5923,1.10000,0.90000,1.10000,0.90000
   205,'AMOCO R7    ', 138.0000,1,  38,  99,  17,0.97986,  -6.6059,1.10000,0.90000,1.10000,0.90000
   207,'JANET  7    ', 138.0000,1,   6,  99,  17,1.01589,  -8.4742,1.10000,0.90000,1.10000,0.90000
   208,'ENMX2S 7    ', 138.0000,1,   6,  99,   3,1.01251,  -9.6490,1.10000,0.90000,1.10000,0.90000
   209,'BRETONA1    ', 138.0000,1,  60,  99,  17,1.01969,   0.3699,1.10000,0.90000,1.10000,0.90000
   210,'SJPC_TP     ', 138.0000,1,  44,  99,  17,1.00555, -10.3413,1.10000,0.90000,1.10000,0.90000
   211,'MOUNT A7    ', 138.0000,1,  44,  99,  17,1.02378, -10.6311,1.10000,0.90000,1.10000,0.90000
   213,'HAIGRIVE    ', 138.0000,1,  17,  99,   1,1.09962,  -7.7544,1.10000,0.90000,1.10000,0.90000
   214,'POCATEA9    ',  13.8000,2,  44,  99,  17,1.00347,  -9.6098,1.10000,0.90000,1.10000,0.90000
   215,'TEX.W.P7    ', 138.0000,1,  30,  99,  17,1.01385,  -3.3341,1.10000,0.90000,1.10000,0.90000
   216,'BARRIER7    ', 138.0000,1,  44,  99,  17,1.02172, -10.5176,1.10000,0.90000,1.10000,0.90000
   217,'SJP_CRK     ', 138.0000,1,  44,  99,  17,1.00550, -10.3434,1.10000,0.90000,1.10000,0.90000
   218,'BLACKMUD    ', 138.0000,1,  60,  99,  17,1.01013,  -1.5917,1.10000,0.90000,1.10000,0.90000
   219,'KILLARN7    ', 138.0000,1,  37,  99,  17,1.02431,  -3.4081,1.10000,0.90000,1.10000,0.90000
   220,'HAYTER 7    ', 138.0000,1,  37,  99,  17,1.00932,  -4.0141,1.10000,0.90000,1.10000,0.90000
   221,'CRR-W1      ', 240.0000,1,  53,  99,  58,1.04771,  -1.8624,1.10000,0.90000,1.10000,0.90000
   222,'BARRIER9    ',  13.2000,2,  44,  99,  17,1.03000,  -9.9772,1.10000,0.90000,1.10000,0.90000
   223,'PINCHER8    ',  69.0000,1,  53,  99,  17,1.01997,  -1.2959,1.10000,0.90000,1.10000,0.90000
   224,'PINCHER7    ', 138.0000,1,  53,  99,  17,1.05081,  -1.0872,1.10000,0.90000,1.10000,0.90000
   225,'WARE JCT    ', 240.0000,1,  47,  99,  17,1.07530,   0.7459,1.10000,0.90000,1.10000,0.90000
   226,'DRYWOOD8    ',  69.0000,1,  55,  99,  17,1.02421,  -2.4054,1.10000,0.90000,1.10000,0.90000
...
0 / END OF BUS DATA, BEGIN LOAD DATA
    14,'99',1,  27,  99,     0.067,     0.034,     0.000,     0.000,     0.000,     0.000,   4,1,0
    33,'99',1,  30,  99,     0.086,     0.043,     0.000,     0.000,     0.000,     0.000,  17,1,0
    43,'35',1,  33,  35,     3.079,     0.000,     0.000,     0.000,     0.000,     0.000,  29,1,0
    43,'37',1,  33,  37,   201.776,   100.887,     0.000,     0.000,     0.000,     0.000,  29,1,0
    43,'99',1,  33,  99,    24.325,    12.163,     0.000,     0.000,     0.000,     0.000,  29,1,0
    50,'37',1,  33,  37,    10.844,     5.422,     0.000,     0.000,     0.000,     0.000, 211,1,0
    50,'99',1,  33,  99,     9.044,     4.522,     0.000,     0.000,     0.000,     0.000, 211,1,0
    57,'99',1,  33,  99,     1.210,     0.605,     0.000,     0.000,     0.000,     0.000,  17,1,0
    61,'37',1,  33,  37,    30.509,    15.254,     0.000,     0.000,     0.000,     0.000, 191,1,0
    61,'99',1,  33,  99,    38.160,    19.081,     0.000,     0.000,     0.000,     0.000, 191,1,0
    79,'99',1,  32,  99,     0.001,     0.000,     0.000,     0.000,     0.000,     0.000,  17,1,0
    80,'99',1,  30,  99,     0.639,     0.320,     0.000,     0.000,     0.000,     0.000,  17,1,0
   127,'99',1,   6,  99,     8.375,     4.188,     0.000,     0.000,     0.000,     0.000,   3,1,0
   130,'36',1,  40,  36,    21.700,    10.900,     0.000,     0.000,     0.000,     0.000,  17,1,0
   165,'99',1,  53,  99,     0.001,     0.000,     0.000,     0.000,     0.000,     0.000, 191,1,0
   167,'99',1,  54,  99,     0.001,     0.001,     0.000,     0.000,     0.000,     0.000,  17,1,0
   176,'99',1,  44,  99,     0.292,     0.146,     0.000,     0.000,     0.000,     0.000, 194,1,0
   180,'99',1,  44,  99,     5.170,     2.585,     0.000,     0.000,     0.000,     0.000,  17,1,0
   183,'99',1,  44,  99,     0.006,     0.003,     0.000,     0.000,     0.000,     0.000,  17,1,0
   188,'99',1,  44,  99,     6.231,     3.116,     0.000,     0.000,     0.000,     0.000,  17,1,0
   189,'99',1,  44,  99,    10.032,     5.016,     0.000,     0.000,     0.000,     0.000,  17,1,0
   197,'99',1,  44,  99,     0.127,     0.064,     0.000,     0.000,     0.000,     0.000,  17,1,0
   208,'99',1,   6,  99,     0.012,     0.006,     0.000,     0.000,     0.000,     0.000,   3,1,0
   214,'99',1,  44,  99,     0.094,     0.047,     0.000,     0.000,     0.000,     0.000,  17,1,0
   222,'99',1,  44,  99,     0.054,     0.027,     0.000,     0.000,     0.000,     0.000,  17,1,0
   234,'99',1,  53,  99,     0.058,     0.029,     0.000,     0.000,     0.000,     0.000,  44,1,0
   239,'99',1,  46,  99,     6.258,     3.129,     0.000,     0.000,     0.000,     0.000,  17,1,0
   248,'37',1,  28,  37,    24.488,    12.244,     0.000,     0.000,     0.000,     0.000,  36,1,0
   255,'99',1,  53,  99,     0.046,     0.023,     0.000,     0.000,     0.000,     0.000,  17,1,0
   265,'99',1,  53,  99,     0.046,     0.023,     0.000,     0.000,     0.000,     0.000,  17,1,0
   268,'99',1,  48,  99,     3.778,     1.889,     0.000,     0.000,     0.000,     0.000,  17,1,0
   274,'99',1,  52,  99,    11.193,     5.597,     0.000,     0.000,     0.000,     0.000,  17,1,0
   287,'99',1,  48,  99,     5.397,     2.699,     0.000,     0.000,     0.000,     0.000,  17,1,0
   288,'99',1,  48,  99,     2.699,     1.349,     0.000,     0.000,     0.000,     0.000,  17,1,0
   289,'99',1,  48,  99,     3.508,     1.754,     0.000,     0.000,     0.000,     0.000,  17,1,0
   296,'99',1,  53,  99,     0.002,     0.001,     0.000,     0.000,     0.000,     0.000,  17,1,0
   305,'99',1,  27,  99,     9.558,     4.779,     0.000,     0.000,     0.000,     0.000,  17,1,0
   330,'99',1,  30,  99,    20.094,    10.047,     0.000,     0.000,     0.000,     0.000,  17,1,0
   342,'36',1,  40,  36,    23.000,    11.500,     0.000,     0.000,     0.000,     0.000,  17,1,0
   345,'36',1,  40,  36,    22.200,    11.100,     0.000,     0.000,     0.000,     0.000,  17,1,0
   346,'99',1,  53,  99,     0.003,     0.002,     0.000,     0.000,     0.000,     0.000,  17,1,0
   348,'99',1,  61,  99,     3.540,     1.770,     0.000,     0.000,     0.000,     0.000,  17,1,0
   350,'35',1,  40,  35,    17.489,     0.000,     0.000,     0.000,     0.000,     0.000,  17,1,0
   350,'36',1,  40,  36,    18.500,     9.200,     0.000,     0.000,     0.000,     0.000,  17,1,0
   375,'99',1,  44,  99,     0.137,     0.068,     0.000,     0.000,     0.000,     0.000,  17,1,0
   380,'99',1,  44,  99,     1.744,     0.872,     0.000,     0.000,     0.000,     0.000,  17,1,0
   383,'37',1,  35,  37,    56.720,    28.360,     0.000,     0.000,     0.000,     0.000,  17,1,0
   383,'99',1,  35,  99,    76.368,    38.184,     0.000,     0.000,     0.000,     0.000,  17,1,0
   403,'36',1,  40,  36,    41.400,    20.700,     0.000,     0.000,     0.000,     0.000,  17,1,0
   405,'36',1,  61,  36,     3.000,     1.500,     0.000,     0.000,     0.000,     0.000, 251,1,0
   405,'37',1,  61,  37,     7.338,     3.669,     0.000,     0.000,     0.000,     0.000, 251,1,0
   405,'99',1,  61,  99,     0.125,     0.063,     0.000,     0.000,     0.000,     0.000, 251,1,0
   407,'99',1,  54,  99,     0.012,     0.006,     0.000,     0.000,     0.000,     0.000,  17,1,0
   408,'99',1,  26,  99,     0.156,     0.078,     0.000,     0.000,     0.000,     0.000,  17,1,0
   414,'99',1,  55,  99,     0.019,     0.010,     0.000,     0.000,     0.000,     0.000,  17,1,0
   422,'36',1,  40,  36,    23.200,    11.600,     0.000,     0.000,     0.000,     0.000,  17,1,0
   424,'36',1,  40,  36,    21.700,    10.900,     0.000,     0.000,     0.000,     0.000,  17,1,0
   440,'99',1,  31,  99,     0.013,     0.007,     0.000,     0.000,     0.000,     0.000,  17,1,0
   478,'99',1,  44,  99,    16.090,     8.045,     0.000,     0.000,     0.000,     0.000,  17,1,0
   479,'99',1,  44,  99,     0.127,     0.064,     0.000,     0.000,     0.000,     0.000,  17,1,0
   490,'36',1,  40,  36,    37.900,    19.000,     0.000,     0.000,     0.000,     0.000,   5,1,0
   491,'36',1,  40,  36,    24.600,    12.300,     0.000,     0.000,     0.000,     0.000,   5,1,0
   492,'36',1,  40,  36,    24.600,    12.300,     0.000,     0.000,     0.000,     0.000,   5,1,0
   666,'99',1,  58,  99,     0.394,     0.197,     0.000,     0.000,     0.000,     0.000,   1,1,0
   680,'35',1,   4,  35,     6.770,     0.000,     0.000,     0.000,     0.000,     0.000,  17,1,0
   680,'37',1,   4,  37,    85.745,    42.873,     0.000,     0.000,     0.000,     0.000,  17,1,0
   910,'99',1,  29,  99,     0.920,     0.460,     0.000,     0.000,     0.000,     0.000,  17,1,0
  1029,'99',1,  17,  99,    10.386,     5.193,     0.000,     0.000,     0.000,     0.000,   1,1,0
  1031,'99',1,  17,  99,     5.804,     2.902,     0.000,     0.000,     0.000,     0.000,   1,1,0
  1032,'35',1,  17,  35,     0.935,     0.000,     0.000,     0.000,     0.000,     0.000,   1,1,0
  1032,'99',1,  17,  99,    14.358,     7.179,     0.000,     0.000,     0.000,     0.000,   1,1,0
  1035,'99',1,  17,  99,     0.048,     0.024,     0.000,     0.000,     0.000,     0.000,  21,1,0
  1037,'99',1,  17,  99,     0.003,     0.002,     0.000,     0.000,     0.000,     0.000,  21,1,0
  1050,'99',1,  19,  99,     2.438,     1.219,     0.000,     0.000,     0.000,     0.000,   1,1,0
  1089,'34',1,  19,  34,    27.000,    12.000,     0.000,     0.000,     0.000,     0.000,  33,1,0
  1101,'37',1,  20,  37,     4.089,     2.044,     0.000,     0.000,     0.000,     0.000,  30,1,0
  1146,'37',1,  20,  37,    14.894,     7.447,     0.000,     0.000,     0.000,     0.000,  39,1,0
  1148,'36',1,  22,  36,    12.600,     6.300,     0.000,     0.000,     0.000,     0.000,   1,1,0
  1167,'99',1,  23,  99,     0.022,     0.011,     0.000,     0.000,     0.000,     0.000,   1,1,0
  1168,'99',1,  23,  99,     0.029,     0.014,     0.000,     0.000,     0.000,     0.000,   1,1,0
  1171,'35',1,  23,  35,     8.996,     0.000,     0.000,     0.000,     0.000,     0.000,   1,1,0
  1171,'99',1,  23,  99,     0.298,     0.149,     0.000,     0.000,     0.000,     0.000,   1,1,0
  1173,'35',1,  23,  35,     1.616,     0.000,     0.000,     0.000,     0.000,     0.000,   1,1,0
  1173,'99',1,  23,  99,     0.298,     0.149,     0.000,     0.000,     0.000,     0.000,   1,1,0
  1200,'99',1,  59,  99,     0.162,     0.081,     0.000,     0.000,     0.000,     0.000,   1,1,0
  1205,'37',1,  59,  37,   329.448,   164.724,     0.000,     0.000,     0.000,     0.000,   9,1,0
  1208,'37',1,  59,  37,   334.625,   167.313,     0.000,     0.000,     0.000,     0.000,  10,1,0
  1208,'99',1,  59,  99,     0.012,     0.006,     0.000,     0.000,     0.000,     0.000,  10,1,0
  1231,'99',1,  21,  99,    23.461,    11.731,     0.000,     0.000,     0.000,     0.000,   1,1,0
  1232,'99',1,  21,  99,    23.461,    11.731,     0.000,     0.000,     0.000,     0.000,   1,1,0
  1236,'37',1,  59,  37,    28.428,    14.214,     0.000,     0.000,     0.000,     0.000,  40,1,0
  1236,'99',1,  59,  99,    12.394,     0.197,     0.000,     0.000,     0.000,     0.000,  40,1,0
  1241,'37',1,  61,  37,   100.872,    50.436,     0.000,     0.000,     0.000,     0.000,  99,1,0
  1251,'37',1,  58,  37,    71.906,    35.953,     0.000,     0.000,     0.000,     0.000, 261,1,0
  1262,'37',1,  58,  37,    22.707,    11.353,     0.000,     0.000,     0.000,     0.000, 261,1,0
  1274,'37',1,  58,  37,     8.303,     4.152,     0.000,     0.000,     0.000,     0.000,   1,1,0
  1289,'37',1,  59,  37,    74.947,    37.474,     0.000,     0.000,     0.000,     0.000, 481,1,0
  1301,'36',1,  28,  36,     2.600,     1.400,     0.000,     0.000,     0.000,     0.000,  63,1,0
  1301,'37',1,  28,  37,    37.876,    18.938,     0.000,     0.000,     0.000,     0.000,  63,1,0
  1301,'99',1,  28,  99,     4.512,     2.256,     0.000,     0.000,     0.000,     0.000,  63,1,0
  1302,'37',1,  28,  37,    74.205,    37.103,     0.000,     0.000,     0.000,     0.000,   1,1,0
  1344,'99',1,  28,  99,     2.368,     1.184,     0.000,     0.000,     0.000,     0.000,   1,1,0
  1350,'99',1,  56,  99,     0.545,     0.272,     0.000,     0.000,     0.000,     0.000,   1,1,0
  1383,'99',1,  13,  99,     0.003,     0.002,     0.000,     0.000,     0.000,     0.000,   1,1,0
  1471,'99',1,  42,  99,    10.272,     5.136,     0.000,     0.000,     0.000,     0.000,   1,1,0
  1473,'34',1,  48,  34,   -65.740,     0.000,     0.000,     0.000,     0.000,     0.000,   1,1,0
  1474,'99',1,  42,  99,    11.411,     5.706,     0.000,     0.000,     0.000,     0.000,   1,1,0
  1482,'36',1,  43,  36,    13.500,     6.700,     0.000,     0.000,     0.000,     0.000,   1,1,0
  1484,'99',1,  43,  99,     0.000,     0.000,     0.000,     0.000,     0.000,     0.000,   1,1,0
  1487,'36',1,  43,  36,    11.200,     5.600,     0.000,     0.000,     0.000,     0.000,   1,1,0
  1495,'36',1,  36,  36,     7.600,     3.800,     0.000,     0.000,     0.000,     0.000,   1,1,0
  1496,'36',1,  36,  36,     7.100,     3.500,     0.000,     0.000,     0.000,     0.000,   1,1,0
  1497,'36',1,  36,  36,    18.200,     9.100,     0.000,     0.000,     0.000,     0.000,   1,1,0
  1503,'34',1,  15,  34,    10.000,     3.300,     0.000,     0.000,     0.000,     0.000,   2,1,0
  1504,'34',1,  15,  34,    10.000,     3.300,     0.000,     0.000,     0.000,     0.000,   2,1,0
  1505,'34',1,  15,  34,    10.000,     3.300,     0.000,     0.000,     0.000,     0.000,   2,1,0
  1506,'34',1,  15,  34,    10.000,     3.300,     0.000,     0.000,     0.000,     0.000,   2,1,0
  1681,'99',1,  59,  99,    31.684,    15.842,     0.000,     0.000,     0.000,     0.000,  36,1,0
  1683,'99',1,  59,  99,     8.641,     4.320,     0.000,     0.000,     0.000,     0.000,  36,1,0
  1684,'99',1,  59,  99,    31.684,    15.842,     0.000,     0.000,     0.000,     0.000,  36,1,0
  2017,'99',1,  44,  99,     2.853,     1.427,     0.000,     0.000,     0.000,     0.000,  17,1,0
  2018,'99',1,  44,  99,     2.853,     1.427,     0.000,     0.000,     0.000,     0.000,  17,1,0
  2053,'99',1,  48,  99,     3.289,     1.645,     0.000,     0.000,     0.000,     0.000,  17,1,0
  2060,'99',1,  33,  99,    13.139,     6.570,     0.000,     0.000,     0.000,     0.000,  17,1,0
  2062,'99',1,  33,  99,     8.247,     4.124,     0.000,     0.000,     0.000,     0.000,  17,1,0
  2063,'99',1,  33,  99,     8.459,     4.230,     0.000,     0.000,     0.000,     0.000,  17,1,0
  2085,'99',1,  26,  99,    28.312,    14.156,     0.000,     0.000,     0.000,     0.000,  17,1,0
  2089,'99',1,  60,  99,    13.538,     6.769,     0.000,     0.000,     0.000,     0.000,  17,1,0
  2103,'99',1,  34,  99,     1.868,     0.934,     0.000,     0.000,     0.000,     0.000,  17,1,0
  2125,'99',1,  60,  99,     9.166,     4.583,     0.000,     0.000,     0.000,     0.000,  17,1,0
  2169,'99',1,  44,  99,     6.823,     3.411,     0.000,     0.000,     0.000,     0.000,  17,1,0
  2173,'99',1,  60,  99,     6.003,     3.002,     0.000,     0.000,     0.000,     0.000,  17,1,0
  2198,'99',1,   6,  99,     7.982,     3.991,     0.000,     0.000,     0.000,     0.000,  17,1,0
  2208,'99',1,   6,  99,     7.677,     3.838,     0.000,     0.000,     0.000,     0.000,   3,1,0
  2218,'99',1,  60,  99,     8.981,     4.491,     0.000,     0.000,     0.000,     0.000,  17,1,0
  2230,'99',1,  53,  99,     0.022,     0.011,     0.000,     0.000,     0.000,     0.000,   1,1,0
  2231,'99',1,  55,  99,     2.039,     1.020,     0.000,     0.000,     0.000,     0.000,  17,1,0
  2242,'99',1,  46,  99,    13.011,     6.506,     0.000,     0.000,     0.000,     0.000,  17,1,0
  2260,'99',1,  48,  99,    13.935,     6.968,     0.000,     0.000,     0.000,     0.000,  17,1,0
  2266,'99',1,  48,  99,     3.512,     1.756,     0.000,     0.000,     0.000,     0.000,  17,1,0
  2269,'99',1,  52,  99,     8.327,     4.164,     0.000,     0.000,     0.000,     0.000,  17,1,0
  2284,'99',1,   4,  99,     2.849,     1.425,     0.000,     0.000,     0.000,     0.000,  17,1,0
  2297,'99',1,  32,  99,     8.794,     4.397,     0.000,     0.000,     0.000,     0.000,  17,1,0
  2298,'99',1,  26,  99,    35.561,    17.781,     0.000,     0.000,     0.000,     0.000,  17,1,0
  2311,'99',1,  60,  99,    15.304,     7.652,     0.000,     0.000,     0.000,     0.000,  17,1,0
  2315,'99',1,  45,  99,     6.514,     3.257,     0.000,     0.000,     0.000,     0.000,  17,1,0
  2340,'99',1,  45,  99,     7.175,     3.587,     0.000,     0.000,     0.000,     0.000,  17,1,0
  2344,'99',1,  48,  99,     2.820,     1.410,     0.000,     0.000,     0.000,     0.000,  17,1,0
  2357,'99',1,  60,  99,     9.658,     4.829,     0.000,     0.000,     0.000,     0.000,  17,1,0
  2364,'99',1,  40,  99,     9.435,     4.718,     0.000,     0.000,     0.000,     0.000,  17,1,0
  2366,'99',1,  60,  99,     8.602,     4.301,     0.000,     0.000,     0.000,     0.000,  17,1,0
  2368,'99',1,  29,  99,     5.480,     2.740,     0.000,     0.000,     0.000,     0.000,  17,1,0
  2369,'99',1,  61,  99,    13.164,     6.582,     0.000,     0.000,     0.000,     0.000,  17,1,0
  2370,'99',1,  61,  99,    17.450,     8.725,     0.000,     0.000,     0.000,     0.000,  17,1,0
  2373,'99',1,  32,  99,     3.221,     1.610,     0.000,     0.000,     0.000,     0.000,  17,1,0
  2384,'99',1,  35,  99,    33.507,    16.754,     0.000,     0.000,     0.000,     0.000,  17,1,0
  2389,'99',1,  54,  99,     0.038,     0.019,     0.000,     0.000,     0.000,     0.000,  10,1,0
  2392,'37',1,  27,  37,    56.885,    28.443,     0.000,     0.000,     0.000,     0.000, 301,1,0
  2397,'99',1,  29,  99,    11.954,     5.977,     0.000,     0.000,     0.000,     0.000,  17,1,0
  2399,'99',1,  47,  99,    10.049,     5.025,     0.000,     0.000,     0.000,     0.000,  17,1,0
  2402,'99',1,  53,  99,     0.035,     0.018,     0.000,     0.000,     0.000,     0.000, 192,1,0
  2415,'99',1,  29,  99,     1.027,     0.513,     0.000,     0.000,     0.000,     0.000,  17,1,0
  2417,'99',1,  27,  99,    14.609,     7.304,     0.000,     0.000,     0.000,     0.000,  17,1,0
  2488,'99',1,  40,  99,     2.291,     1.146,     0.000,     0.000,     0.000,     0.000,  17,1,0
  2503,'99',1,  57,  99,     0.096,     0.048,     0.000,     0.000,     0.000,     0.000,   3,1,0
  2514,'99',1,  60,  99,     3.987,     1.994,     0.000,     0.000,     0.000,     0.000,   5,1,0
  2515,'99',1,  60,  99,    10.701,     5.350,     0.000,     0.000,     0.000,     0.000,  17,1,0
  2550,'99',1,   6,  99,     9.863,     4.932,     0.000,     0.000,     0.000,     0.000,   3,1,0
  2551,'99',1,   6,  99,     9.914,     4.957,     0.000,     0.000,     0.000,     0.000,   3,1,0
  2555,'99',1,   6,  99,    11.930,     5.965,     0.000,     0.000,     0.000,     0.000,   3,1,0
  2556,'99',1,   6,  99,     2.938,     1.469,     0.000,     0.000,     0.000,     0.000,   3,1,0
  2559,'99',1,   6,  99,     5.756,     2.878,     0.000,     0.000,     0.000,     0.000,   3,1,0
  2561,'99',1,   6,  99,    11.714,     5.857,     0.000,     0.000,     0.000,     0.000,   3,1,0
  2564,'99',1,   6,  99,     2.723,     1.362,     0.000,     0.000,     0.000,     0.000,   3,1,0
  2567,'99',1,   6,  99,    14.773,     7.387,     0.000,     0.000,     0.000,     0.000,   3,1,0
  2568,'99',1,   6,  99,     6.694,     3.347,     0.000,     0.000,     0.000,     0.000,   3,1,0
  2571,'99',1,   6,  99,     2.731,     1.366,     0.000,     0.000,     0.000,     0.000,   3,1,0
  2572,'99',1,   6,  99,     9.584,     4.792,     0.000,     0.000,     0.000,     0.000,   3,1,0
  2573,'99',1,   6,  99,     5.114,     2.557,     0.000,     0.000,     0.000,     0.000,   3,1,0
  2576,'99',1,   6,  99,    16.853,     8.427,     0.000,     0.000,     0.000,     0.000,   3,1,0
  2578,'99',1,   6,  99,     1.329,     0.665,     0.000,     0.000,     0.000,     0.000,   3,1,0
  2579,'99',1,   6,  99,     7.399,     3.700,     0.000,     0.000,     0.000,     0.000,   3,1,0
  2582,'99',1,   6,  99,     3.548,     1.774,     0.000,     0.000,     0.000,     0.000,   3,1,0
  2585,'99',1,   6,  99,     7.886,     3.943,     0.000,     0.000,     0.000,     0.000,   3,1,0
  2588,'99',1,   6,  99,    12.780,     6.390,     0.000,     0.000,     0.000,     0.000,   3,1,0
  2589,'99',1,   6,  99,     9.408,     4.704,     0.000,     0.000,     0.000,     0.000,   3,1,0
  2598,'99',1,   6,  99,    14.358,     7.179,     0.000,     0.000,     0.000,     0.000,   3,1,0
  2605,'99',1,  29,  99,     1.149,     0.574,     0.000,     0.000,     0.000,     0.000,  17,1,0
  2621,'99',1,  42,  99,     0.014,     0.007,     0.000,     0.000,     0.000,     0.000, 371,1,0
  2622,'99',1,  42,  99,     0.014,     0.007,     0.000,     0.000,     0.000,     0.000, 371,1,0
  2623,'99',1,  42,  99,     0.011,     0.005,     0.000,     0.000,     0.000,     0.000, 371,1,0
  2624,'99',1,  42,  99,     0.014,     0.007,     0.000,     0.000,     0.000,     0.000, 371,1,0
  2625,'99',1,  42,  99,     0.018,     0.009,     0.000,     0.000,     0.000,     0.000, 371,1,0
  2674,'99',1,  26,  99,     0.017,     0.009,     0.000,     0.000,     0.000,     0.000, 193,1,0
  2690,'99',1,  54,  99,    10.069,     5.035,     0.000,     0.000,     0.000,     0.000,  17,1,0
  2716,'99',1,  42,  99,     1.056,     0.528,     0.000,     0.000,     0.000,     0.000, 391,1,0
  2763,'99',1,  53,  99,     0.124,     0.062,     0.000,     0.000,     0.000,     0.000, 190,1,0
  2771,'99',1,  33,  99,     5.882,     2.941,     0.000,     0.000,     0.000,     0.000,  17,1,0
  2779,'99',1,  40,  99,     2.063,     1.032,     0.000,     0.000,     0.000,     0.000,  17,1,0
  2780,'99',1,  35,  99,     4.198,     2.099,     0.000,     0.000,     0.000,     0.000,  17,1,0
...
0 / END OF LOAD DATA, BEGIN FIXED SHUNT DATA
  1089,'1 ',0,     0.000,    36.000
0 / END OF FIXED SHUNT DATA, BEGIN GENERATOR DATA
    14,'1 ',    14.285,    -3.162,     8.200,    -5.600,1.02500,     0,    21.000, 0.00000E+0, 1.30000E-1, 0.00000E+0, 0.00000E+0,1.00000,1,  100.0,    17.000,     6.000,   4,1.0000
    33,'1 ',     0.000,     0.000,     4.100,    -2.800,1.02200,     0,     9.300, 2.00000E-3, 2.10000E-1, 0.00000E+0, 0.00000E+0,1.00000,0,  100.0,     8.400,    -0.500,  17,1.0000
    33,'2 ',     0.000,     0.000,     4.100,    -2.800,1.02200,     0,     9.300, 2.00000E-3, 2.20000E-1, 0.00000E+0, 0.00000E+0,1.00000,0,  100.0,     8.400,    -0.500,  17,1.0000
    43,'1 ',    -0.333,     0.000,     0.000,     0.000,1.03000,     0,     4.000, 0.00000E+0, 2.50000E-1, 0.00000E+0, 0.00000E+0,1.00000,1,  100.0,     0.000,    -4.000,  29,1.0000
    43,'2 ',    -0.333,     0.000,     0.000,     0.000,1.03000,     0,     4.000, 0.00000E+0, 2.50000E-1, 0.00000E+0, 0.00000E+0,1.00000,1,  100.0,     0.000,    -4.000,  29,1.0000
    43,'3 ',    -0.333,     0.000,     0.000,     0.000,1.03000,     0,     4.000, 0.00000E+0, 2.50000E-1, 0.00000E+0, 0.00000E+0,1.00000,1,  100.0,     0.000,    -4.000,  29,1.0000
    43,'4 ',    -0.333,     0.000,     0.000,     0.000,1.03000,     0,     4.000, 0.00000E+0, 2.50000E-1, 0.00000E+0, 0.00000E+0,1.00000,1,  100.0,     0.000,    -4.000,  29,1.0000
    43,'G1',    96.000,    41.900,    41.900,   -28.400,1.03000,     0,    96.100, 1.66000E-3, 2.10000E-1, 0.00000E+0, 0.00000E+0,1.00000,1,  100.0,    96.000,     0.000,  29,1.0000
    43,'G2',    -0.666,    -4.100,    -4.100,    -4.100,1.03000,     0,     9.000, 0.00000E+0, 1.67000E-1, 0.00000E+0, 0.00000E+0,1.00000,1,  100.0,     0.000,    -9.000,  29,1.0000
    43,'GT',    99.400,    48.100,    48.100,   -32.700,1.03000,     0,   110.400, 4.00000E-3, 2.19000E-1, 0.00000E+0, 0.00000E+0,1.00000,1,  100.0,    99.400,    20.000,  29,1.0000
    43,'M1',    -1.000,     0.000,     0.000,     0.000,1.03000,     0,    12.800, 0.00000E+0, 3.20000E-1, 0.00000E+0, 0.00000E+0,1.00000,1,  100.0,     0.000,   -11.190,  29,1.0000
    43,'M2',    -1.000,     0.000,     0.000,     0.000,1.03000,     0,    12.800, 0.00000E+0, 3.20000E-1, 0.00000E+0, 0.00000E+0,1.00000,1,  100.0,     0.000,   -11.190,  29,1.0000
    43,'M3',    -1.000,     0.000,     0.000,     0.000,1.03000,     0,    12.800, 0.00000E+0, 3.20000E-1, 0.00000E+0, 0.00000E+0,1.00000,1,  100.0,     0.000,   -11.190,  29,1.0000
    43,'M4',    -1.000,     0.000,     0.000,     0.000,1.03000,     0,    12.800, 0.00000E+0, 3.20000E-1, 0.00000E+0, 0.00000E+0,1.00000,1,  100.0,     0.000,   -11.190,  29,1.0000
    43,'M5',    -1.000,     0.000,     0.000,     0.000,1.03000,     0,    12.800, 0.00000E+0, 3.20000E-1, 0.00000E+0, 0.00000E+0,1.00000,1,  100.0,     0.000,   -11.190,  29,1.0000
    43,'M6',    -1.999,     0.000,     0.000,     0.000,1.03000,     0,    25.600, 0.00000E+0, 2.33000E-1, 0.00000E+0, 0.00000E+0,1.00000,1,  100.0,     0.000,   -25.600,  29,1.0000
    43,'ST',    10.000,    17.735,    46.300,   -31.400,1.03000,     0,   106.300, 3.84000E-3, 1.80000E-1, 0.00000E+0, 0.00000E+0,1.00000,1,  100.0,    95.700,    10.000,  29,1.0000
    50,'1 ',    32.500,    31.000,    31.000,   -21.100,1.03000,     0,    71.200, 0.00000E+0, 1.81000E-1, 0.00000E+0, 0.00000E+0,1.00000,1,  100.0,    64.100,    20.000, 211,1.0000
    61,'G1',    64.100,    -8.469,    48.200,   -32.700,1.03000,     0,   110.600, 0.00000E+0, 3.00000E-1, 0.00000E+0, 0.00000E+0,1.00000,1,  100.0,    99.500,     0.000, 191,1.0000
    61,'G2',    75.000,   -32.700,    48.200,   -32.700,1.03000,     0,   110.600, 0.00000E+0, 3.00000E-1, 0.00000E+0, 0.00000E+0,1.00000,0,  100.0,    99.500,     0.000, 191,1.0000
    61,'GT',    50.000,   -28.700,    42.300,   -28.700,1.03000,     0,    97.000, 4.00000E-3, 2.00000E-1, 0.00000E+0, 0.00000E+0,1.00000,0,  100.0,    95.000,    17.000, 191,1.0000
    61,'M1',    -1.486,    -0.196,     0.000,    -5.800,1.03000,     0,     9.900, 6.40000E-3, 1.98000E-1, 0.00000E+0, 0.00000E+0,1.00000,1,  100.0,     0.000,    -9.698, 191,1.0000
    61,'M2',    -1.858,     0.000,     0.000,     0.000,1.03000,     0,    12.500, 5.50000E-3, 2.50000E-1, 0.00000E+0, 0.00000E+0,1.00000,1,  100.0,     0.000,   -12.520, 191,1.0000
    61,'ST',    12.300,   -15.000,    23.800,   -15.000,1.03000,     0,    50.600, 5.00000E-3, 2.00000E-1, 0.00000E+0, 0.00000E+0,1.00000,0,  100.0,    45.500,    12.000, 191,1.0000
   102,'1 ',    22.600,    -4.882,    28.600,   -19.400,0.97300,     0,    65.500, 1.95000E-3, 3.40000E-1, 0.00000E+0, 0.00000E+0,1.00000,0,  100.0,    60.000,     0.000,  17,1.0000
   108,'2 ',    33.687,    -5.725,    28.600,   -19.400,0.97200,     0,    65.500, 1.95000E-3, 3.40000E-1, 0.00000E+0, 0.00000E+0,1.00000,1,  100.0,    60.000,     0.000,  17,1.0000
   129,'1 ',   212.400,   -25.000,    10.000,   -25.000,1.00000,     0,   333.000, 2.00000E-3, 1.90000E-1, 0.00000E+0, 0.00000E+0,1.00000,1,  100.0,   300.000,   154.000,  17,1.0000
   130,'3A',   299.858,    20.915,   188.900,  -128.200,1.03000,     0,   483.300, 5.10000E-3, 2.07000E-1, 0.00000E+0, 0.00000E+0,1.00000,1,  100.0,   395.000,   155.500,  17,1.0000
   151,'1 ',     9.303,     7.234,    80.200,   -54.400,0.98000,     0,   184.000, 2.00000E-3, 2.42000E-1, 0.00000E+0, 0.00000E+0,1.00000,1,  100.0,   160.000,     0.000,  17,1.0000
   154,'2 ',    16.800,    29.981,    90.200,   -61.200,0.98000,     0,   207.000, 2.00000E-3, 3.30000E-1, 0.00000E+0, 0.00000E+0,1.00000,0,  100.0,   190.000,    -3.100,  17,1.0000
   172,'1 ',     5.600,     0.707,     2.700,    -1.800,1.02500,     0,     6.300, 2.00000E-3, 2.00000E-1, 0.00000E+0, 0.00000E+0,1.00000,1,  100.0,     5.600,     0.000,  17,1.0000
   172,'2 ',     3.400,     0.430,     1.600,    -1.100,1.02500,     0,     3.800, 2.00000E-3, 2.00000E-1, 0.00000E+0, 0.00000E+0,1.00000,1,  100.0,     3.400,     0.000,  17,1.0000
   172,'3 ',     0.222,     0.028,     1.600,    -1.100,1.02500,     0,     3.800, 2.00000E-3, 2.00000E-1, 0.00000E+0, 0.00000E+0,1.00000,1,  100.0,     3.400,     0.000,  17,1.0000
   172,'4 ',     2.900,    -0.180,     2.700,    -1.800,1.02500,     0,     6.300, 2.00000E-3, 2.00000E-1, 0.00000E+0, 0.00000E+0,1.00000,0,  100.0,     5.600,     0.000,  17,1.0000
   174,'1 ',    22.518,     9.081,    31.600,   -18.000,1.04663,     0,    54.600, 2.00000E-3, 2.20000E-1, 0.00000E+0, 0.00000E+0,1.00000,1,  100.0,    50.000,     0.000,  17,1.0000
   176,'1 ',     2.532,     8.700,     8.700,    -5.900,1.04775,     0,    20.000, 1.00000E-3, 2.50000E-1, 0.00000E+0, 0.00000E+0,1.00000,1,  100.0,    18.000,    -0.500, 194,1.0000
   176,'2 ',     4.700,     5.073,     9.600,    -5.800,1.04775,     0,    20.000, 1.00000E-3, 3.30000E-1, 0.00000E+0, 0.00000E+0,1.00000,0,  100.0,    18.000,    -2.000, 194,1.0000
   181,'2 ',     9.739,     4.659,     7.800,    -5.300,1.00000,     0,    15.000, 2.00000E-3, 1.70000E-1, 0.00000E+0, 0.00000E+0,1.00000,1,  100.0,    16.200,     0.000,  17,1.0000
   181,'3 ',     6.900,     0.126,     8.700,    -5.900,1.00000,     0,    15.000, 2.00000E-3, 1.70000E-1, 0.00000E+0, 0.00000E+0,1.00000,0,  100.0,    18.000,     0.000,  17,1.0000
   181,'4A',    10.200,     0.186,    12.800,    -8.700,1.00000,     0,    31.100, 1.00000E-3, 3.70000E-1, 0.00000E+0, 0.00000E+0,1.00000,0,  100.0,    26.500,    -0.500,  17,1.0000
   183,'1 ',     8.230,    -5.300,     7.800,    -5.300,1.01500,     0,    18.000, 2.00000E-3, 2.10000E-1, 0.00000E+0, 0.00000E+0,1.00000,1,  100.0,    17.400,     0.000,  17,1.0000
   189,'1 ',    -6.688,     0.000,     0.000,     0.000,1.00000,     0,    15.000, 0.00000E+0, 2.50000E-1, 0.00000E+0, 0.00000E+0,1.00000,1,  100.0,     0.000,   -15.000,  17,1.0000
   189,'2 ',    -6.688,     0.000,     0.000,     0.000,1.00000,     0,    15.000, 0.00000E+0, 2.50000E-1, 0.00000E+0, 0.00000E+0,1.00000,1,  100.0,     0.000,   -15.000,  17,1.0000
   190,'2A',    16.400,   -14.075,    27.100,   -18.400,1.00000,     0,    62.200, 1.00000E-3, 3.20000E-1, 0.00000E+0, 0.00000E+0,1.00000,0,  100.0,    56.000,     0.000,  17,1.0000
   196,'1 ',     5.000,     1.900,     1.900,    -1.300,1.04786,     0,     4.300, 2.00000E-3, 2.00000E-1, 0.00000E+0, 0.00000E+0,1.00000,1,  100.0,     5.000,     0.000,  17,1.0000
   196,'2 ',     4.095,     1.900,     1.900,    -1.300,1.04786,     0,     4.300, 2.00000E-3, 2.00000E-1, 0.00000E+0, 0.00000E+0,1.00000,1,  100.0,     5.000,     0.000,  17,1.0000
   196,'3 ',     5.800,     3.167,     4.900,    -3.300,1.04786,     0,    11.300, 2.00000E-3, 3.00000E-1, 0.00000E+0, 0.00000E+0,1.00000,0,  100.0,    10.000,     0.000,  17,1.0000
   197,'2 ',     5.667,     5.441,    15.300,   -10.400,1.04761,     0,    35.000, 2.00000E-3, 2.00000E-1, 0.00000E+0, 0.00000E+0,1.00000,1,  100.0,    33.000,    -1.000,  17,1.0000
   214,'1 ',     0.332,     6.500,     6.500,    -4.400,1.03415,     0,    15.000, 2.00000E-3, 1.60000E-1, 0.00000E+0, 0.00000E+0,1.00000,1,  100.0,    14.100,     0.000,  17,1.0000
   222,'1 ',     1.316,     1.026,     4.900,    -3.300,1.03000,     0,    11.300, 2.00000E-3, 2.50000E-1, 0.00000E+0, 0.00000E+0,1.00000,1,  100.0,    11.000,     0.000,  17,1.0000
   248,'1 ',   100.800,    21.534,    48.800,   -33.100,1.04000,     0,   112.000, 0.00000E+0, 2.27100E-1, 0.00000E+0, 0.00000E+0,1.00000,1,  100.0,   100.800,    16.000,  36,1.0000
   248,'2 ',    58.800,    12.562,    48.800,   -33.100,1.04000,     0,   112.000, 0.00000E+0, 2.27100E-1, 0.00000E+0, 0.00000E+0,1.00000,1,  100.0,   100.800,    16.000,  36,1.0000
   255,'1 ',     0.600,     0.000,     0.000,     0.000,1.02560,     0,    14.000, 3.00000E-1, 2.30000E-1, 0.00000E+0, 0.00000E+0,1.00000,1,  100.0,    11.300,     0.000,  17,1.0000
   265,'1 ',     0.350,     0.000,     0.000,     0.000,1.02551,     0,    13.800, 3.00000E-1, 2.30000E-1, 0.00000E+0, 0.00000E+0,1.00000,1,  100.0,    10.100,     0.000,  17,1.0000
   268,'1 ',    -2.699,     0.000,     0.000,     0.000,1.00000,     0,    22.400, 0.00000E+0, 1.60000E-1, 0.00000E+0, 0.00000E+0,1.00000,1,  100.0,     0.000,   -22.400,  17,1.0000
   268,'E1',    -0.270,    -0.135,     0.000,     0.000,1.00000,     0,     2.600, 0.00000E+0, 1.60000E-1, 0.00000E+0, 0.00000E+0,1.00000,0,  100.0,     0.000,    -2.600,  17,1.0000
   268,'F1',    -0.810,     0.000,     0.000,     0.000,1.00000,     0,     8.200, 0.00000E+0, 1.60000E-1, 0.00000E+0, 0.00000E+0,1.00000,1,  100.0,     0.000,    -8.200,  17,1.0000
   268,'F2',    -0.810,     0.000,     0.000,     0.000,1.00000,     0,     8.200, 0.00000E+0, 1.60000E-1, 0.00000E+0, 0.00000E+0,1.00000,1,  100.0,     0.000,    -8.200,  17,1.0000
   287,'1 ',   -12.484,     0.000,     0.000,     0.000,1.01747,     0,    22.400, 0.00000E+0, 1.60000E-1, 0.00000E+0, 0.00000E+0,1.00000,1,  100.0,     0.000,   -22.400,  17,1.0000
   287,'E2',    -0.657,     0.000,     0.000,     0.000,1.01747,     0,     2.600, 0.00000E+0, 1.60000E-1, 0.00000E+0, 0.00000E+0,1.00000,1,  100.0,     0.000,    -2.600,  17,1.0000
   288,'1 ',    -2.699,     0.000,     0.000,     0.000,1.00723,     0,    22.400, 0.00000E+0, 1.60000E-1, 0.00000E+0, 0.00000E+0,1.00000,1,  100.0,     0.000,   -22.400,  17,1.0000
   289,'1 ',    -2.159,     0.000,     0.000,     0.000,1.00747,     0,    18.700, 0.00000E+0, 2.11000E-1, 0.00000E+0, 0.00000E+0,1.00000,1,  100.0,     0.000,   -18.700,  17,1.0000
   289,'2 ',    -2.159,     0.000,     0.000,     0.000,1.00747,     0,    18.700, 0.00000E+0, 2.11000E-1, 0.00000E+0, 0.00000E+0,1.00000,1,  100.0,     0.000,   -18.700,  17,1.0000
   332,'1 ',     6.972,    -0.529,     5.500,    -3.700,1.04763,     0,    12.500, 0.00000E+0, 1.30000E-1, 0.00000E+0, 0.00000E+0,1.00000,1,  100.0,    11.300,     0.000,   4,1.0000
   342,'4A',   321.022,    70.991,   181.000,  -123.000,1.03000,     0,   483.000, 2.00000E-3, 2.50000E-1, 0.00000E+0, 0.00000E+0,1.00000,1,  100.0,   430.000,   169.000,  17,1.0000
   345,'5A',   343.971,    73.178,   181.000,  -123.000,1.03000,     0,   483.700, 2.00000E-3, 2.50000E-1, 0.00000E+0, 0.00000E+0,1.00000,1,  100.0,   435.400,   150.000,  17,1.0000
   350,'6A',   150.000,    51.935,   210.000,   -50.000,1.03000,     0,   472.800, 2.00000E-3, 2.47000E-1, 0.00000E+0, 0.00000E+0,1.00000,1,  100.0,   425.000,   150.000,  17,1.0000
   377,'1 ',     0.557,     0.020,     2.400,    -1.600,1.03085,     0,     5.600, 2.00000E-3, 2.00000E-1, 0.00000E+0, 0.00000E+0,1.00000,1,  100.0,     5.000,     0.000,  17,1.0000
   381,'1 ',     0.537,    -1.200,     1.700,    -1.200,1.04255,     0,     4.000, 2.00000E-3, 2.00000E-1, 0.00000E+0, 0.00000E+0,1.00000,1,  100.0,     3.600,     0.000,  17,1.0000
   383,'1 ',   139.200,   -21.940,    48.000,   -37.000,1.01800,     0,   165.000, 7.40000E-3, 1.41000E-1, 0.00000E+0, 0.00000E+0,1.00000,1,  100.0,   158.000,    55.000,  17,1.0000
   383,'2 ',   110.000,   -47.000,    53.000,   -47.000,1.01800,     0,   171.000, 7.40000E-3, 1.41000E-1, 0.00000E+0, 0.00000E+0,1.00000,0,  100.0,   163.000,    57.000,  17,1.0000
   383,'3 ',    90.000,   -43.000,    35.000,   -43.000,1.01800,     0,   157.000, 7.50000E-3, 1.31000E-1, 0.00000E+0, 0.00000E+0,1.00000,0,  100.0,   133.000,    50.000,  17,1.0000
   403,'3 ',   491.600,   310.400,   310.400,   -99.900,1.06000,   610,   586.000, 4.00000E-3, 2.77000E-1, 0.00000E+0, 0.00000E+0,1.00000,1,  100.0,   498.000,   142.000,  17,1.0000
   405,'1 ',    64.900,   -24.700,    25.800,   -24.700,1.05000,     0,    93.900, 3.30000E-3, 1.60000E-1, 0.00000E+0, 0.00000E+0,1.00000,1,  100.0,    82.500,     8.000, 251,1.0000
   405,'2 ',    47.100,   -35.000,    40.000,   -35.000,1.05000,     0,    93.900, 3.30000E-3, 1.60000E-1, 0.00000E+0, 0.00000E+0,1.00000,0,  100.0,    85.300,    10.000, 251,1.0000
   407,'1 ',     5.225,     1.611,     6.000,    -4.100,1.02756,     0,    13.800, 0.00000E+0, 2.30000E-1, 0.00000E+0, 0.00000E+0,1.00000,1,  100.0,    12.400,     0.000,  17,1.0000
   408,'1 ',    23.256,     7.767,    15.400,   -10.500,1.02671,     0,    35.300, 0.00000E+0, 1.80000E-1, 0.00000E+0, 0.00000E+0,1.00000,1,  100.0,    31.800,     0.000,  17,1.0000
   414,'1 ',     7.134,    -1.953,    10.000,    -6.800,1.02000,     0,    22.800, 0.00000E+0, 2.40000E-1, 0.00000E+0, 0.00000E+0,1.00000,1,  100.0,    20.600,     0.000,  17,1.0000
   422,'1A',   371.747,   -21.898,   208.000,  -110.000,1.03000,     0,   477.000, 5.07000E-3, 3.00000E-1, 0.00000E+0, 0.00000E+0,1.00000,1,  100.0,   415.000,   164.000,  17,1.0000
   424,'2A',   342.100,   -24.750,   208.000,  -110.000,1.03000,     0,   477.000, 5.07000E-3, 3.00000E-1, 0.00000E+0, 0.00000E+0,1.00000,1,  100.0,   415.000,   199.000,  17,1.0000
   450,'1 ',     0.398,     1.186,     2.400,    -1.600,1.04788,     0,     7.000, 0.00000E+0, 2.00000E-1, 0.00000E+0, 0.00000E+0,1.00000,1,  100.0,     6.300,     0.000,  17,1.0000
   451,'1 ',    25.916,     0.000,     0.000,     0.000,1.00000,     0,   310.000, 0.00000E+0, 1.00000E+0, 0.00000E+0, 0.00000E+0,1.00000,1,  100.0,   320.000,  -320.000, 381,1.0000
   479,'1 ',     3.500,     6.875,     8.700,    -5.900,1.04761,     0,    20.000, 2.00000E-3, 2.50000E-1, 0.00000E+0, 0.00000E+0,1.00000,0,  100.0,    18.000,    -1.000,  17,1.0000
   490,'3 ',   438.560,    62.519,   255.400,  -173.300,1.04000,     0,   586.000, 1.89000E-3, 2.77000E-1, 0.00000E+0, 0.00000E+0,1.00000,1,  100.0,   527.400,   142.000,   5,1.0000
   491,'1 ',   422.000,    55.825,   138.400,   -34.400,1.04000,     0,   482.400, 1.89000E-3, 2.50000E-1, 0.00000E+0, 0.00000E+0,1.00000,1,  100.0,   422.000,   123.600,   5,1.0000
   492,'2A',   422.000,    53.907,   208.000,  -112.000,1.04000,     0,   482.400, 1.85000E-3, 2.50000E-1, 0.00000E+0, 0.00000E+0,1.00000,1,  100.0,   422.000,   200.000,   5,1.0000
   680,'1 ',    56.300,    15.402,    27.200,   -18.500,1.02000,     0,    62.500, 0.00000E+0, 2.10000E-1, 0.00000E+0, 0.00000E+0,1.00000,1,  100.0,    56.300,     0.000,  17,1.0000
   680,'10',    29.900,     8.180,    15.400,   -10.500,1.02000,     0,    35.400, 0.00000E+0, 2.20000E-1, 0.00000E+0, 0.00000E+0,1.00000,1,  100.0,    31.900,    12.000,  17,1.0000
   680,'11',    12.000,     3.283,    15.400,   -10.500,1.02000,     0,    35.400, 0.00000E+0, 2.20000E-1, 0.00000E+0, 0.00000E+0,1.00000,1,  100.0,    31.900,    12.000,  17,1.0000
   680,'12',    20.000,    -2.668,    18.600,   -12.600,1.02000,     0,    42.600, 0.00000E+0, 1.60000E-1, 0.00000E+0, 0.00000E+0,1.00000,0,  100.0,    38.300,     4.000,  17,1.0000
   680,'14',    30.000,    -4.003,    27.700,   -12.600,1.02000,     0,    67.500, 1.40000E-3, 1.90000E-1, 0.00000E+0, 0.00000E+0,1.00000,0,  100.0,    45.000,    17.000,  17,1.0000
   680,'15',    30.000,    -4.003,    22.000,   -14.100,1.02000,     0,    71.200, 5.30000E-3, 1.44000E-1, 0.00000E+0, 0.00000E+0,1.00000,0,  100.0,    43.000,    17.000,  17,1.0000
   680,'3 ',    20.000,    -2.668,    18.500,   -12.600,1.02000,     0,    42.600, 0.00000E+0, 1.60000E-1, 0.00000E+0, 0.00000E+0,1.00000,0,  100.0,    38.300,     4.000,  17,1.0000
   680,'9 ',     0.000,     0.000,    19.600,   -13.300,1.02000,     0,    44.900, 0.00000E+0, 2.60000E-1, 0.00000E+0, 0.00000E+0,1.00000,0,  100.0,    40.400,     0.000,  17,1.0000
  1031,'1 ',     0.000,     0.000,    13.900,    -9.500,1.02000,     0,    32.000, 3.50000E-3, 7.00000E-2, 0.00000E+0, 0.00000E+0,1.00000,0,  100.0,    28.800,     4.000,   1,1.0000
  1032,'2 ',     4.000,   -13.037,    25.000,   -18.000,1.02000,     0,    49.000, 7.20000E-3, 1.45000E-1, 0.00000E+0, 0.00000E+0,1.00000,1,  100.0,    44.100,     4.000,   1,1.0000
  1033,'3 ',     0.000,     0.000,     9.500,    -6.400,1.02000,     0,    21.700, 4.50000E-3, 9.00000E-2, 0.00000E+0, 0.00000E+0,1.00000,0,  100.0,    19.500,     3.000,   1,1.0000
  1035,'4 ',    30.061,   -17.300,    25.500,   -17.300,1.02000,     0,    58.600, 1.40000E-3, 1.62000E-1, 0.00000E+0, 0.00000E+0,1.00000,1,  100.0,    52.700,     9.000,  21,1.0000
  1037,'5 ',    15.804,    -5.160,    25.500,   -17.300,1.02000,     0,    60.000, 1.40000E-3, 1.98000E-1, 0.00000E+0, 0.00000E+0,1.00000,1,  100.0,    52.700,     2.000,  21,1.0000
  1087,'2 ',     5.000,    -9.200,    13.400,    -9.200,1.00000,     0,    29.500, 6.00000E-3, 1.40000E-1, 0.00000E+0, 0.00000E+0,1.00000,0,  100.0,    25.100,     5.000,  33,1.0000
  1089,'1A',    28.724,   -12.804,    20.500,   -13.900,1.00000,     0,    47.100, 9.30000E-3, 1.88000E-1, 0.00000E+0, 0.00000E+0,1.00000,1,  100.0,    40.000,     2.270,  33,1.0000
  1101,'2 ',    16.055,    -9.500,    13.900,    -9.500,1.05000,     0,    32.000, 3.10000E-3, 1.98000E-1, 0.00000E+0, 0.00000E+0,1.00000,1,  100.0,    28.800,     0.000,  30,1.0000
  1146,'1A',    15.088,   -16.200,    30.000,   -16.200,1.01000,     0,    57.900, 0.00000E+0, 1.55000E-1, 0.00000E+0, 0.00000E+0,1.00000,1,  100.0,    49.200,    10.000,  39,1.0000
  1148,'1 ',    95.858,   -25.172,    72.600,   -49.300,1.02600,     0,   167.000, 3.00000E-3, 1.85000E-1, 0.00000E+0, 0.00000E+0,1.00000,1,  100.0,   151.100,     0.000,   1,1.0000
  1167,'1 ',     0.000,     0.000,     5.400,    -3.700,1.03000,     0,    12.500, 4.50000E-3, 1.68000E-1, 0.00000E+0, 0.00000E+0,1.00000,0,  100.0,    11.300,     0.750,   1,1.0000
  1168,'2 ',     0.000,     0.000,     4.100,    -3.700,1.00000,     0,     9.400, 5.00000E-3, 1.68000E-1, 0.00000E+0, 0.00000E+0,1.00000,0,  100.0,     8.400,     0.750,   1,1.0000
  1171,'1 ',     9.000,   -17.300,    25.500,   -17.300,1.02000,     0,    60.000, 1.40000E-3, 1.98000E-1, 0.00000E+0, 0.00000E+0,1.00000,1,  100.0,    52.700,     9.000,   1,1.0000
  1173,'2 ',     2.000,   -17.300,    25.500,   -17.300,1.00000,     0,    72.000, 5.00000E-4, 1.60000E-1, 0.00000E+0, 0.00000E+0,1.00000,1,  100.0,    52.700,     2.000,   1,1.0000
  1205,'1 ',   100.000,    29.596,    44.800,   -30.400,1.10000,     0,   102.800, 4.00000E-3, 2.30000E-1, 0.00000E+0, 0.00000E+0,1.00000,1,  100.0,   100.000,    16.450,   9,1.0000
  1205,'11',    22.000,     6.511,    27.000,   -13.000,1.10000,     0,    33.800, 4.50000E-3, 1.47000E-1, 0.00000E+0, 0.00000E+0,1.00000,1,  100.0,    22.000,     2.000,   9,1.0000
...